/opt/apps/ansys/14.5/v145/fluent/fluent14.5.0/bin/fluent -r14.5.0 2ddp -t4 -pinfiniband -cnf=/opt/torque/4.2.9/spool/aux//125260.master.cluster -g -ssh
Loading "/opt/apps/ansys/14.5/v145/fluent/fluent14.5.0/lib/fluent.dmp.114-64"
Done.
/opt/apps/ansys/14.5/v145/fluent/fluent14.5.0/bin/fluent -r14.5.0 2ddp -pinfiniband -host -t4 -mpi=pcmpi -cnf=/opt/torque/4.2.9/spool/aux//125260.master.cluster -path/opt/apps/ansys/14.5/v145/fluent -ssh -cx it018.cluster:60709:51298

     Welcome to ANSYS Fluent 14.5.0

     Copyright 2012 ANSYS, Inc.. All Rights Reserved.
     Unauthorized use, distribution or duplication is prohibited.
     This product is subject to U.S. laws governing export and re-export.
     For full Legal Notice, see documentation.

Build Time: Sep 21 2012 20:39:51 EDT  Build Id: 10329
 

     --------------------------------------------------------------
     This is an academic version of ANSYS FLUENT. Usage of this product
     license is limited to the terms and conditions specified in your ANSYS
     license form, additional terms section.
     --------------------------------------------------------------
Host spawning Node 0 on machine "it018" (unix).
/opt/apps/ansys/14.5/v145/fluent/fluent14.5.0/bin/fluent -r14.5.0 2ddp -flux -node -t4 -pinfiniband -mpi=pcmpi -cnf=/opt/torque/4.2.9/spool/aux//125260.master.cluster -ssh -mport 10.21.10.18:10.21.10.18:56727:0
Starting /opt/apps/ansys/14.5/v145/fluent/fluent14.5.0/multiport/mpi/lnamd64/pcmpi/bin/mpirun -e MPI_USE_MALLOPT_MMAP_MAX=0 -prot -IBV -e MPI_HASIC_IBV=1 -f /tmp/fluent-appfile.31406
Platform-MPI licensed for FLUENT.
Host 0 -- ip 10.21.10.18 -- ranks 0 - 3

 host | 0
======|======
    0 : SHM

 Prot -  All Intra-node communication is: SHM


------------------------------------------------------------------------------
ID     Comm.   Hostname        O.S.        PID     Mach ID HW ID   Name        
------------------------------------------------------------------------------
host   net     it018           Linux-64    31247   0       7       Fluent Host 
n3     pcmpi   it018           Linux-64    31538   0       3       Fluent Node 
n2     pcmpi   it018           Linux-64    31537   0       2       Fluent Node 
n1     pcmpi   it018           Linux-64    31536   0       1       Fluent Node 
n0*    pcmpi   it018           Linux-64    31535   0       0       Fluent Node 

Selected system interconnect: InfiniBand
------------------------------------------------------------------------------


> 
> 
load/unload/compile? [load]> UDF Library Name ["libudf"] 
Opening library "/home/nathir2/ULTRA/batoid-burt-3/CFD/automation/setup/libudf"...
> 




/define/dynamic-mesh/zones> Zone name/id [] Invalid zone.
Zone name/id [] Invalid zone.
Zone name/id [] Invalid zone.
Zone name/id [] Invalid zone.
Zone name/id [] Invalid zone.
Zone name/id [] Invalid zone.
Zone name/id [] Invalid zone.
Zone name/id [] Invalid zone.
Invalid zone.
Zone name/id [] Invalid zone.
Invalid zone.
Invalid zone.
Zone name/id [] Invalid zone.
Invalid zone.
Zone name/id [] Invalid zone.
Invalid zone.
Invalid zone.
Zone name/id [] Invalid zone.
Invalid zone.
Zone name/id [] 
/define/dynamic-mesh/zones> 
> Halting due to end of file on input.
